test/fixtures/synthetic_v34_full.raw
@!IC, SBASE,REV,XFRRAT,NXFRAT,BASFRQ
0,   100.00, 34,     0,     1, 60.00     / Synthetic fictional PSS(R)E 34 case, shaped like a rawd34 export


GENERAL, THRSHZ=0.0001, PQBRAK=0.7, BLOWUP=5.0
GAUSS, ITMX=100, ACCP=1.6, ACCQ=1.6, ACCM=1.0, TOL=0.0001
NEWTON, ITMXN=20, ACCN=1.0, TOLN=0.1, VCTOLQ=0.1, VCTOLV=0.00001, DVLIM=0.99, NDVFCT=0.99
ADJUST, ADJTHR=0.005, ACCTAP=1.0, TAPLIM=0.05, SWVBND=100.0, MXTPSS=99, MXSWIM=10
TYSL, ITMXTY=20, ACCTY=1.0, TOLTY=0.00001
SOLVER, FNSL, ACTAPS=1, AREAIN=0, PHSHFT=0, DCTAPS=1, SWSHNT=1, FLATST=0, VARLIM=0, NONDIV=0
RATING, 1, "RATE1 ", "RATING SET1                     "
RATING, 2, "RATE2 ", "RATING SET2                     "
0 / END OF SYSTEM-WIDE DATA, BEGIN BUS DATA
@!   I,'NAME        ', BASKV, IDE,AREA,ZONE,OWNER, VM,        VA,    NVHI,   NVLO,   EVHI,   EVLO
     1,'BUSONE      ', 200.0000,3,   1,   1,   1,1.00000,   0.0000,1.10000,0.90000,1.10000,0.90000
     2,'BUSTWO      ', 200.0000,2,   1,   1,   1,1.00000,   0.0000,1.10000,0.90000,1.10000,0.90000
     3,'BUSTHREE    ', 138.0000,1,   1,   1,   1,1.00000,   0.0000,1.10000,0.90000,1.10000,0.90000
   201,'T1_HV       ', 100.0000,3,   1,   1,   1,1.00000,   0.0000,1.10000,0.90000,1.10000,0.90000
   202,'T1_LV       ',  20.0000,1,   1,   1,   1,1.00000,   0.0000,1.10000,0.90000,1.10000,0.90000
   301,'T3W_HV      ', 230.0000,3,   1,   1,   1,1.00000,   0.0000,1.10000,0.90000,1.10000,0.90000
   302,'T3W_MV      ', 115.0000,1,   1,   1,   1,1.00000,   0.0000,1.10000,0.90000,1.10000,0.90000
   303,'T3W_LV      ',  13.8000,1,   1,   1,   1,1.00000,   0.0000,1.10000,0.90000,1.10000,0.90000
0 / END OF BUS DATA, BEGIN LOAD DATA
@!   I,'ID',STAT,AREA,ZONE,      PL,        QL,        IP,        IQ,        YP,        YQ, OWNER,SCALE,INTRPT,  DGENP,     DGENQ, DGENF
     3,'1 ',   1,   1,   1,    50.000,    10.000,     0.000,     0.000,     0.000,     0.000,   1,    1,  0,     3.333,     0.500,   1
   202,'1 ',   1,   1,   1,     5.000,     1.000,     0.000,     0.000,     0.000,     0.000,   1,    1,  0,     0.000,     0.000,   0
   302,'1 ',   1,   1,   1,    20.000,     4.000,     0.000,     0.000,     0.000,     0.000,   1,    1,  0,     0.000,     0.000,   0
   303,'1 ',   1,   1,   1,     2.000,     0.400,     0.000,     0.000,     0.000,     0.000,   1,    1,  0,     0.000,     0.000,   0
0 / END OF LOAD DATA, BEGIN FIXED SHUNT DATA
@!   I,'ID',STATUS,   GL,        BL
     2,'1 ',1,     0.000,    10.000
0 / END OF FIXED SHUNT DATA, BEGIN GENERATOR DATA
@!   I,'ID',      PG,        QG,        QT,        QB,     VS,    IREG,     MBASE,     ZR,         ZX,         RT,         XT,     GTAP,STAT, RMPCT,      PT,        PB,    O1,    F1,  O2,    F2,  O3,    F3,  O4,    F4,WMOD, WPF,NREG
     1,'1 ',    80.000,     0.000,    80.000,   -80.000,1.00000,     0,   100.000, 0.00000E+0, 1.00000E-1, 0.00000E+0, 0.00000E+0,1.00000,1,  100.0,   120.000,     0.000,   1,1.0000,   0,1.0000,   0,1.0000,   0,1.0000,   0,1.0000,   5
     2,'1 ',    30.000,     0.000,    50.000,   -50.000,1.00000,     0,   100.000, 0.00000E+0, 1.00000E-1, 0.00000E+0, 0.00000E+0,1.00000,1,  100.0,   120.000,     0.000,   1,1.0000
   201,'1 ',    10.000,     0.000,    20.000,   -20.000,1.00000,     0,   100.000, 0.00000E+0, 1.00000E-1, 0.00000E+0, 0.00000E+0,1.00000,1,  100.0,   120.000,     0.000,   1,1.0000
   301,'1 ',    25.000,     0.000,    30.000,   -30.000,1.00000,     0,   100.000, 0.00000E+0, 1.00000E-1, 0.00000E+0, 0.00000E+0,1.00000,1,  100.0,   120.000,     0.000,   1,1.0000
0 / END OF GENERATOR DATA, BEGIN BRANCH DATA
@!   I,     J,'CKT',     R,          X,         B,                    'N A M E'                 ,    RATE1,    RATE2,    RATE3,    RATE4,    RATE5,    RATE6,    RATE7,    RATE8,    RATE9,   RATE10,   RATE11,   RATE12,    GI,       BI,       GJ,       BJ,STAT,MET,  LEN,  O1,  F1,    O2,  F2,    O3,  F3,    O4,  F4
     1,     2,'1 ', 1.00000E-02, 1.00000E-01,0.02000,'BRANCH_1_2                              ', 500.00, 500.00, 500.00,   0.00,   0.00,   0.00,   0.00,   0.00,   0.00,   0.00,   0.00,   0.00, 0.00000, 0.00000, 0.00000, 0.00000,1,1,  1.00,   1,1.0000
     2,     3,'1 ', 1.00000E-02, 1.00000E-01,0.02000,'BRANCH_2_3                              ', 500.00, 500.00, 500.00,   0.00,   0.00,   0.00,   0.00,   0.00,   0.00,   0.00,   0.00,   0.00, 0.00000, 0.00000, 0.00000, 0.00000,1,1,  1.00,   1,1.0000
0 / END OF BRANCH DATA, BEGIN SYSTEM SWITCHING DEVICE DATA
@!   I,     J,'CKT',         X,   RATE1,   RATE2,   RATE3,   RATE4,   RATE5,   RATE6,   RATE7,   RATE8,   RATE9,  RATE10,  RATE11,  RATE12, STAT,NSTAT,  MET,STYPE,'NAME'
     2,     3,'2 ', 1.00000E-4, 2000.00, 2000.00, 2000.00,    0.00,    0.00,    0.00,    0.00,    0.00,    0.00,    0.00,    0.00,    0.00,    1,    1,    1,    2,'BRK_2_3                                 '
0 / END OF SYSTEM SWITCHING DEVICE DATA, BEGIN TRANSFORMER DATA
@!   I,     J,     K,'CKT',CW,CZ,CM,     MAG1,        MAG2,NMETR,               'N A M E',               STAT,O1,  F1,    O2,  F2,    O3,  F3,    O4,  F4,     'VECGRP', ZCOD
@!   R1-2,       X1-2,   SBASE1-2,     R2-3,       X2-3,   SBASE2-3,     R3-1,       X3-1,   SBASE3-1, VMSTAR,   ANSTAR
@!WINDV1,  NOMV1,    ANG1,  RATE1-1,  RATE1-2,  RATE1-3,  RATE1-4,  RATE1-5,  RATE1-6,  RATE1-7,  RATE1-8,  RATE1-9, RATE1-10, RATE1-11, RATE1-12,COD1,CONT1,   RMA1,    RMI1,    VMA1,    VMI1, NTP1,TAB1,  CR1,     CX1,   CNXA1,NOD1
   201,   202,     0,'1 ', 1, 1, 1, 0.00000E+00, 0.00000E+00,2,'XFMR_T1                                 ',1,   1,1.0000,   0,1.0000,   0,1.0000,   0,1.0000,'            '
 1.00000E-2, 5.00000E-2,   100.00
  1.000,   0.000,   0.000,    40.00,    40.00,    40.00,     0.00,     0.00,     0.00,     0.00,     0.00,     0.00,     0.00,     0.00,     0.00, 0,      0, 1.10000, 0.90000, 1.10000, 0.90000,  33, 0, 0.00000, 0.00000,   0.000,   9
  1.000,   0.000
   301,   302,   303,'1 ', 1, 1, 1, 0.00000E+00, 0.00000E+00,2,'XFMR_3W                                 ',1,   1,1.0000,   0,1.0000,   0,1.0000,   0,1.0000,'            ',   1
 5.00000E-3, 1.00000E-1,   100.00, 5.00000E-3, 1.20000E-1,   100.00, 5.00000E-3, 1.50000E-1,   100.00, 1.00000,   0.000
  1.000,   0.000,   0.000,   200.00,   200.00,   200.00,     0.00,     0.00,     0.00,     0.00,     0.00,     0.00,     0.00,     0.00,     0.00, 0,      0, 1.10000, 0.90000, 1.10000, 0.90000,  33, 0, 0.00000, 0.00000,   0.000,  11
  1.000,   0.000,   0.000,   150.00,   150.00,   150.00,     0.00,     0.00,     0.00,     0.00,     0.00,     0.00,     0.00,     0.00,     0.00, 0,      0, 1.10000, 0.90000, 1.10000, 0.90000,  33, 0, 0.00000, 0.00000,   0.000,  12
  1.000,   0.000,   0.000,    50.00,    50.00,    50.00,     0.00,     0.00,     0.00,     0.00,     0.00,     0.00,     0.00,     0.00,     0.00, 0,      0, 1.10000, 0.90000, 1.10000, 0.90000,  33, 0, 0.00000, 0.00000,   0.000,  13
0 / END OF TRANSFORMER DATA, BEGIN AREA DATA
@! I,   ISW,     PDES,      PTOL,    'ARNAME'
   1,     1,     0.000,    10.000,'AREA1       '
0 / END OF AREA DATA, BEGIN TWO-TERMINAL DC DATA
@!  'NAME',   MDC,     RDC,      SETVL,     VSCHD,     VCMOD,     RCOMP,    DELTI,METER    DCVMIN,CCCITMX, CCCACC
@! IPR,NBR,ANMXR,ANMNR,   RCR,    XCR,  EBASR,  TRR,    TAPR,   TMXR,   TMNR,   STPR,    ICR,   IFR,   ITR,'IDR', XCAPR,NDR
@! IPI,NBI,ANMXI,ANMNI,   RCI,    XCI,  EBASI,  TRI,    TAPI,   TMXI,   TMNI,   STPI,    ICI,   IFI,   ITI,'IDI', XCAPI,NDI
"DCV34TEST   ",1,   5.0000,   100.00,   400.00,   0.0000,  0.00000,  0.00000,'I',     0.00,  20,  1.00000
     1,  1, 15.000, 10.000, 0.0000, 5.0000, 200.00,1.00000,1.00000,1.10000,0.90000,0.00625,     0,  0,     0,'1 ', 0.0000,  4
     2,  1, 15.000, 10.000, 0.0000, 5.0000, 200.00,1.00000,1.00000,1.10000,0.90000,0.00625,     0,  0,     0,'1 ', 0.0000,  6
0 / END OF TWO-TERMINAL DC DATA, BEGIN VSC DC LINE DATA
@!  'NAME',   MDC,     RDC,   O1,  F1,    O2,  F2,    O3,  F3,    O4,  F4
@!IBUS,TYPE,MODE,     DCSET,   ACSET,     ALOSS,     BLOSS,   MINLOSS,     SMAX,      IMAX,   PWF,        MAXQ,      MINQ, VSREG,  RMPCT,NREG
'VSCLINE1    ', 1, 0.0000, 1, 1.0, 0, 1.0, 0, 1.0, 0, 1.0
     1, 1, 1, 150.000,1.05000,1000.0000,1.5000,  0.00, 250.00, 1000.00,0.5000, 100.00,-100.00,   0, 75.00,   8
     3, 2, 1, -20.000,1.02500,1000.0000,1.5000,  0.00, 250.00, 1000.00,0.5000, 100.00,-100.00,   0, 60.00,   0
0 / END OF VSC DC LINE DATA, BEGIN IMPEDANCE CORRECTION DATA
@!I,   T1,    Re(F1),  Im(F1),    T2,    Re(F2),  Im(F2),    T3,    Re(F3),  Im(F3),    T4,    Re(F4),  Im(F4),    T5,    Re(F5),  Im(F5),    T6,    Re(F6),  Im(F6)
@!     T7,    Re(F7),  Im(F7),    T8,    Re(F8),  Im(F8),    T9,    Re(F9),  Im(F9),    T10,  Re(F10), Im(F10),    T11,  Re(F11), Im(F11),    T12,  Re(F12), Im(F12)
 1, 0.90000, 1.05000, 0.00000, 1.00000, 1.00000, 0.00000, 1.10000, 1.05000, 0.00000, 1.15000, 1.08000, 0.00000, 1.20000, 1.12000, 0.00000, 1.25000, 1.16000, 0.00000
    1.30000, 1.20000, 0.00000, 0.00000, 0.00000, 0.00000
0 / END OF IMPEDANCE CORRECTION DATA, BEGIN MULTI-TERMINAL DC DATA
0 / END OF MULTI-TERMINAL DC DATA, BEGIN MULTI-SECTION LINE DATA
0 / END OF MULTI-SECTION LINE DATA, BEGIN ZONE DATA
@! I,   'ZONAME'
   1,'ZONE1       '
0 / END OF ZONE DATA, BEGIN INTER-AREA TRANSFER DATA
0 / END OF INTER-AREA TRANSFER DATA, BEGIN OWNER DATA
@! I,   'OWNAME'
   1,'OWNER1      '
0 / END OF OWNER DATA, BEGIN FACTS DEVICE DATA
@!  'NAME',         I,     J,MODE,   PDES,      QDES,  VSET,      SHMX,      TRMX,   VTMN,   VTMX,   VSMX,      IMX,     LINX,   RMPCT,OWNER,    SET1,      SET2,VSREF, FCREG,   'MNAME'    ,NREG
"FACTSV34    ",     3,     0,1,     0.000,     0.000,1.00000,    50.000,  9999.000,0.90000,1.10000,1.00000,     0.000, 0.05000,  100.0,   1,   0.00000,   0.00000,   0,     3,"            ",   0
0 / END OF FACTS DEVICE DATA, BEGIN SWITCHED SHUNT DATA
@!  I,MODSW,ADJM,ST, VSWHI,  VSWLO, SWREG,  RMPCT,   'RMIDNT',      BINIT,N1,     B1, N2,     B2, N3,     B3, N4,     B4, N5,     B5, N6,     B6, N7,     B7, N8,     B8, NREG
     3,  1,  1,  1,1.05000,0.95000,     3,  100.0,'            ',   10.00, 2,   10.00
     2,  2,  1,  1,1.03000,1.03000,     2,  100.0,'            ',  -20.00, 1, -100.00, 1,  250.00, 0,    0.00, 0,    0.00, 0,    0.00, 0,    0.00, 0,    0.00, 0,    0.00,  7
0 / END OF SWITCHED SHUNT DATA, BEGIN GNE DATA
0 / END OF GNE DATA, BEGIN INDUCTION MACHINE DATA
0 / END OF INDUCTION MACHINE DATA, BEGIN SUBSTATION DATA
0 / END OF SUBSTATION DATA
Q
